# *******************
# ECCO cost functions
# *******************
 &ECCO_COST_NML
#
 &
# ***************************
# ECCO generic cost functions
# ***************************
 &ECCO_GENCOST_NML
 gencost_avgperiod(1)  = 'month',
 gencost_barfile(1) = 'm_trVol_month',
 gencost_errfile(1) = 'rapid_mask',
 gencost_name(1) = 'transp_trVol',
 gencost_posproc(1,1) = 'trVol',
 gencost_outputlevel(1)=1,
 mult_gencost(1) = 1.,
#
 &
#
